6GD
     RDKit          3D

 47 50  0  0  0  0  0  0  0  0999 V2000
    5.2300   18.9100   24.9800 C   0  0  0  0  0  0  0  0  0  0  0  0
    7.1500   20.1700   24.8400 N   0  0  0  0  0  0  0  0  0  0  0  0
    7.8500   21.2600   25.0900 C   0  0  0  0  0  0  0  0  0  0  0  0
    6.1600   22.2700   26.4300 C   0  0  0  0  0  0  0  0  0  0  0  0
    6.0100   24.5400   27.4600 C   0  0  0  0  0  0  0  0  0  0  0  0
    7.1300   26.4600   27.2900 C   0  0  0  0  0  0  0  0  0  0  0  0
    7.9800   27.4100   26.7500 C   0  0  0  0  0  0  0  0  0  0  0  0
    8.2700   27.4000   25.4100 C   0  0  0  0  0  0  0  0  0  0  0  0
    6.7300   25.4100   26.5100 C   0  0  0  0  0  0  0  0  0  0  0  0
    4.1100   20.9800   26.7000 C   0  0  0  0  0  0  0  0  0  0  0  0
   -0.9200   19.4600   26.5400 C   0  0  0  0  0  0  0  0  0  0  0  0
    0.4300   19.9000   25.9600 C   0  0  0  0  0  0  0  0  0  0  0  0
    0.5900   21.3800   25.8900 C   0  0  0  0  0  0  0  0  0  0  0  0
    0.6400   19.2600   24.5600 C   0  0  0  0  0  0  0  0  0  0  0  0
    1.7800   19.3500   27.1200 S   0  0  0  0  0  6  0  0  0  0  0  0
    1.7500   19.9800   28.4600 O   0  0  0  0  0  0  0  0  0  0  0  0
    1.7100   17.8500   27.3200 O   0  0  0  0  0  0  0  0  0  0  0  0
    3.4200   19.7600   26.3800 C   0  0  0  0  0  0  0  0  0  0  0  0
    3.9700   18.7500   25.5300 C   0  0  0  0  0  0  0  0  0  0  0  0
    5.8700   20.1400   25.2700 C   0  0  0  0  0  0  0  0  0  0  0  0
    7.4300   22.3600   25.8900 C   0  0  0  0  0  0  0  0  0  0  0  0
    5.6500   23.2200   27.3800 N   0  0  0  0  0  0  0  0  0  0  0  0
    5.9300   25.0700   28.6600 N   0  0  0  0  0  0  0  0  0  0  0  0
    6.5700   26.2500   28.5600 N   0  0  0  0  0  0  0  0  0  0  0  0
    7.7800   26.4600   24.6000 C   0  0  0  0  0  0  0  0  0  0  0  0
    8.0900   26.4800   23.2800 F   0  0  0  0  0  0  0  0  0  0  0  0
    7.0500   25.3300   25.1600 C   0  0  0  0  0  0  0  0  0  0  0  0
    5.4000   21.1700   26.1500 C   0  0  0  0  0  0  0  0  0  0  0  0
    5.6460   18.1530   24.3993 H   0  0  0  0  0  0  0  0  0  0  0  0
    8.8407   21.3798   24.6732 H   0  0  0  0  0  0  0  0  0  0  0  0
    8.3917   28.1416   27.4276 H   0  0  0  0  0  0  0  0  0  0  0  0
    8.9104   28.1807   25.0308 H   0  0  0  0  0  0  0  0  0  0  0  0
    3.6425   21.6353   27.2940 H   0  0  0  0  0  0  0  0  0  0  0  0
   -1.6162   20.3092   26.3453 H   0  0  0  0  0  0  0  0  0  0  0  0
   -1.2798   18.5628   25.9865 H   0  0  0  0  0  0  0  0  0  0  0  0
   -0.8160   19.2664   27.6222 H   0  0  0  0  0  0  0  0  0  0  0  0
   -0.3466   21.8399   25.4590 H   0  0  0  0  0  0  0  0  0  0  0  0
    1.3898   21.6175   25.1847 H   0  0  0  0  0  0  0  0  0  0  0  0
    0.7876   21.7606   26.9059 H   0  0  0  0  0  0  0  0  0  0  0  0
    1.0039   18.2129   24.6933 H   0  0  0  0  0  0  0  0  0  0  0  0
    1.3137   19.8757   23.9631 H   0  0  0  0  0  0  0  0  0  0  0  0
   -0.3854   19.1703   24.1501 H   0  0  0  0  0  0  0  0  0  0  0  0
    3.3755   17.9000   25.3520 H   0  0  0  0  0  0  0  0  0  0  0  0
    8.0821   23.1625   26.0902 H   0  0  0  0  0  0  0  0  0  0  0  0
    4.9518   22.8780   28.0334 H   0  0  0  0  0  0  0  0  0  0  0  0
    5.5342   24.8267   29.5724 H   0  0  0  0  0  0  0  0  0  0  0  0
    6.7171   24.5154   24.6790 H   0  0  0  0  0  0  0  0  0  0  0  0
  1 19  2  0
  1 20  1  0
  2 20  2  0
  2  3  1  0
  3 21  2  0
  4 28  2  0
  4 21  1  0
  4 22  1  0
  5 22  1  0
  5  9  2  0
  5 23  1  0
  6  9  1  0
  6 24  2  0
  6  7  1  0
  7  8  2  0
  8 25  1  0
  9 27  1  0
 10 18  2  0
 10 28  1  0
 11 12  1  0
 12 13  1  0
 12 15  1  0
 12 14  1  0
 15 17  2  0
 15 18  1  0
 15 16  2  0
 18 19  1  0
 20 28  1  0
 23 24  1  0
 25 26  1  0
 25 27  2  0
  1 29  1  0
  3 30  1  0
  7 31  1  0
  8 32  1  0
 10 33  1  0
 11 34  1  0
 11 35  1  0
 11 36  1  0
 13 37  1  0
 13 38  1  0
 13 39  1  0
 14 40  1  0
 14 41  1  0
 14 42  1  0
 19 43  1  0
 21 44  1  0
 22 45  1  0
 23 46  1  0
 27 47  1  0
M  END
>  <model_server_result.job_id>  (1) 
oaj5SHxSEEpHJvPwzuphRA

>  <model_server_result.datetime_utc>  (1) 
2024-06-29 15:49:19

>  <model_server_result.server_version>  (1) 
0.9.11

>  <model_server_result.query_name>  (1) 
ligand

>  <model_server_result.source_id>  (1) 
pdb-bcif

>  <model_server_result.entry_id>  (1) 
5j7b

>  <model_server_params.name>  (1) 
atom_site

>  <model_server_params.value>  (1) 
{"label_asym_id":"C","auth_seq_id":401}

>  <model_server_stats.io_time_ms>  (1) 
2

>  <model_server_stats.parse_time_ms>  (1) 
62

>  <model_server_stats.create_model_time_ms>  (1) 
4

>  <model_server_stats.query_time_ms>  (1) 
264

>  <model_server_stats.encode_time_ms>  (1) 
0

>  <model_server_stats.element_count>  (1) 
28

$$$$
