KA2
     RDKit          3D

 53 56  0  0  0  0  0  0  0  0999 V2000
   35.6000   44.8000   47.6800 C   0  0  0  0  0  0  0  0  0  0  0  0
   37.0300   44.4600   47.0700 C   0  0  0  0  0  0  0  0  0  0  0  0
   36.9000   43.3300   45.9500 C   0  0  0  0  0  0  0  0  0  0  0  0
   37.6600   45.7300   46.4400 C   0  0  0  0  0  0  0  0  0  0  0  0
   37.9600   43.8100   48.4500 S   0  0  0  0  0  6  0  0  0  0  0  0
   38.0000   44.7700   49.5400 O   0  0  0  0  0  0  0  0  0  0  0  0
   37.5100   42.4400   48.7100 O   0  0  0  0  0  0  0  0  0  0  0  0
   39.7400   43.5200   47.8500 C   0  0  0  0  0  0  0  0  0  0  0  0
   40.1400   42.2200   47.5200 C   0  0  0  0  0  0  0  0  0  0  0  0
   41.3600   41.9500   47.0200 C   0  0  0  0  0  0  0  0  0  0  0  0
   41.9100   40.7200   46.7000 C   0  0  0  0  0  0  0  0  0  0  0  0
   41.0400   39.6500   46.6200 N   0  0  0  0  0  0  0  0  0  0  0  0
   41.3900   38.2700   46.5200 C   0  0  0  0  0  0  0  0  0  0  0  0
   42.3500   37.7100   47.2900 C   0  0  0  0  0  0  0  0  0  0  0  0
   42.6500   36.3400   47.2200 C   0  0  0  0  0  0  0  0  0  0  0  0
   41.9800   35.4900   46.3500 C   0  0  0  0  0  0  0  0  0  0  0  0
   42.2000   33.7800   45.9300 S   0  0  0  0  0  0  0  0  0  0  0  0
   40.9300   34.0500   44.7300 C   0  0  0  0  0  0  0  0  0  0  0  0
   40.3500   35.2400   44.5900 N   0  0  0  0  0  0  0  0  0  0  0  0
   40.9700   36.0500   45.5700 C   0  0  0  0  0  0  0  0  0  0  0  0
   40.6400   37.4400   45.6000 C   0  0  0  0  0  0  0  0  0  0  0  0
   43.1000   40.5300   46.2500 N   0  0  0  0  0  0  0  0  0  0  0  0
   43.9100   41.5900   46.1600 C   0  0  0  0  0  0  0  0  0  0  0  0
   43.5900   42.8200   46.5300 N   0  0  0  0  0  0  0  0  0  0  0  0
   42.3300   43.0100   46.9700 C   0  0  0  0  0  0  0  0  0  0  0  0
   41.9200   44.3100   47.4000 C   0  0  0  0  0  0  0  0  0  0  0  0
   40.6400   44.5500   47.7800 C   0  0  0  0  0  0  0  0  0  0  0  0
   40.2200   45.8200   48.1500 O   0  0  0  0  0  0  0  0  0  0  0  0
   41.0800   46.7400   48.7800 C   0  0  0  0  0  0  0  0  0  0  0  0
   40.6900   48.1100   48.3000 C   0  0  0  0  0  0  0  0  0  0  0  0
   41.6300   48.5800   47.4300 O   0  0  0  0  0  0  0  0  0  0  0  0
   35.6620   45.8781   47.8995 H   0  0  0  0  0  0  0  0  0  0  0  0
   35.4330   44.1697   48.5490 H   0  0  0  0  0  0  0  0  0  0  0  0
   34.8569   44.5685   46.8783 H   0  0  0  0  0  0  0  0  0  0  0  0
   36.0349   42.7149   46.2428 H   0  0  0  0  0  0  0  0  0  0  0  0
   37.8630   42.8007   46.0397 H   0  0  0  0  0  0  0  0  0  0  0  0
   36.7543   43.8374   44.9836 H   0  0  0  0  0  0  0  0  0  0  0  0
   36.8829   46.0676   45.7278 H   0  0  0  0  0  0  0  0  0  0  0  0
   37.7027   46.4391   47.2458 H   0  0  0  0  0  0  0  0  0  0  0  0
   38.5726   45.3843   45.9949 H   0  0  0  0  0  0  0  0  0  0  0  0
   39.4722   41.4208   47.6655 H   0  0  0  0  0  0  0  0  0  0  0  0
   39.9833   39.7779   46.6243 H   0  0  0  0  0  0  0  0  0  0  0  0
   42.9125   38.3119   47.9829 H   0  0  0  0  0  0  0  0  0  0  0  0
   43.4137   35.9696   47.8603 H   0  0  0  0  0  0  0  0  0  0  0  0
   40.5608   33.1051   43.9864 H   0  0  0  0  0  0  0  0  0  0  0  0
   39.9176   37.9055   45.0267 H   0  0  0  0  0  0  0  0  0  0  0  0
   44.9348   41.4955   45.7550 H   0  0  0  0  0  0  0  0  0  0  0  0
   42.6528   45.0829   47.4052 H   0  0  0  0  0  0  0  0  0  0  0  0
   40.8550   46.6697   49.8788 H   0  0  0  0  0  0  0  0  0  0  0  0
   42.1238   46.5186   48.6012 H   0  0  0  0  0  0  0  0  0  0  0  0
   39.7001   48.1187   47.7806 H   0  0  0  0  0  0  0  0  0  0  0  0
   40.6353   48.7982   49.1680 H   0  0  0  0  0  0  0  0  0  0  0  0
   42.4434   48.0160   47.4413 H   0  0  0  0  0  0  0  0  0  0  0  0
  1  2  1  0
  2  5  1  0
  2  4  1  0
  2  3  1  0
  5  7  2  0
  5  8  1  0
  5  6  2  0
  8 27  2  0
  8  9  1  0
  9 10  2  0
 10 25  1  0
 10 11  1  0
 11 22  2  0
 11 12  1  0
 12 13  1  0
 13 14  2  0
 13 21  1  0
 14 15  1  0
 15 16  2  0
 16 20  1  0
 16 17  1  0
 17 18  1  0
 18 19  2  0
 19 20  1  0
 20 21  2  0
 22 23  1  0
 23 24  2  0
 24 25  1  0
 25 26  2  0
 26 27  1  0
 27 28  1  0
 28 29  1  0
 29 30  1  0
 30 31  1  0
  1 32  1  0
  1 33  1  0
  1 34  1  0
  3 35  1  0
  3 36  1  0
  3 37  1  0
  4 38  1  0
  4 39  1  0
  4 40  1  0
  9 41  1  0
 12 42  1  0
 14 43  1  0
 15 44  1  0
 18 45  1  0
 21 46  1  0
 23 47  1  0
 26 48  1  0
 29 49  1  0
 29 50  1  0
 30 51  1  0
 30 52  1  0
 31 53  1  0
M  END
>  <model_server_result.job_id>  (1) 
vIUMy_pKGe_qxW20ehB_eQ

>  <model_server_result.datetime_utc>  (1) 
2024-06-29 10:08:15

>  <model_server_result.server_version>  (1) 
0.9.11

>  <model_server_result.query_name>  (1) 
ligand

>  <model_server_result.source_id>  (1) 
pdb-bcif

>  <model_server_result.entry_id>  (1) 
6rna

>  <model_server_params.name>  (1) 
atom_site

>  <model_server_params.value>  (1) 
{"label_asym_id":"C","auth_seq_id":401}

>  <model_server_stats.io_time_ms>  (1) 
18

>  <model_server_stats.parse_time_ms>  (1) 
96

>  <model_server_stats.create_model_time_ms>  (1) 
9

>  <model_server_stats.query_time_ms>  (1) 
286

>  <model_server_stats.encode_time_ms>  (1) 
0

>  <model_server_stats.element_count>  (1) 
31

$$$$
